Mass Spectrum: Ethane, fluoro-
Formula: C2 H5 F
CAS: 353-36-6
Molecular weight: 48
m/z	RELATIVE INTENSITY
14	60
15	60
19	10
25	130
26	480
27	1772
28	681
29	220
31	130
32	190
33	2692
34	50
43	10
44	430
45	701
46	1021
47	9999
48	1151
49	30
