Mass Spectrum: Ethane, 1,1,2,2-tetrafluoro-
Formula: C2 H2 F4
CAS: 359-35-3
Molecular weight: 102
Origin: W.E. JONES, UNIV. OF STOCKHOLM, SWEDEN
m/z	RELATIVE INTENSITY
13	63
14	43
25	116
26	123
31	1290
32	774
33	4680
34	48
44	161
45	53
50	150
51	9999
52	106
64	581
65	75
82	484
83	6450
84	452
100	58
101	871
102	290
