Mass Spectrum: Ethane, 1,1,1-trifluoro-
Formula: C2 H3 F3
CAS: 420-46-2
Molecular weight: 84
m/z	RELATIVE INTENSITY
2	30
12	160
13	180
14	290
15	911
16	10
19	50
20	20
24	50
25	130
26	130
27	20
31	731
32	120
33	781
34	10
43	60
44	280
45	931
46	30
50	120
51	160
52	10
62	20
63	160
64	661
65	2783
66	60
69	9999
70	110
81	10
82	30
83	130
84	120
85	10
