Mass Spectrum: 1,1,2-Trifluoroethane
Formula: C2 H3 F3
CAS: 430-66-0
Molecular weight: 84
Origin: T.J. Bruno, Cent. Chem. Technol., NIST, Boulder, CO 80303, USA
m/z	RELATIVE INTENSITY
19	136
20	76
24	122
25	430
26	642
27	98
31	1903
32	2190
33	4174
34	52
43	73
44	661
45	4479
46	164
47	4
51	9999
52	116
63	365
64	978
65	2535
66	51
69	7
81	2
82	153
83	388
84	537
