Mass Spectrum: Tetrafluoromethane
Formula: C F4
CAS: 75-73-0
Molecular weight: 88
m/z	RELATIVE INTENSITY
19	671
31	490
32	10
50	1181
51	10
69	9999
70	110
88	10
