Mass Spectrum: Ethane, hexafluoro-
Formula: C2 F6
CAS: 76-16-4
Molecular weight: 138
m/z	RELATIVE INTENSITY
12	150
13	10
19	120
24	30
31	1832
32	20
43	40
50	1011
51	10
62	10
69	9999
70	110
81	10
100	60
101	10
119	4134
120	90
138	20
